version 2
1
9
.tran 1u 100m 0{return}.kicad adjustpaths{return}.save all{return}.probe alli
5
1
V(/ADC_IN)
 
1
V(/SINE_IN_L)
 
1
V(/SINE_IN_R)
 
1
V(Net-_U5-+_)
 
1
V(Net-_U5--_)
 
