version 2
1
9
.tran 1u 250m{return}.kicad adjustpaths{return}.save all{return}.probe alli
2
1
V(/PEAK_OUT_L)
 
1
V(/SINE_IN_L)
 
